IEEE/34Bus/ieee34-2_Power_elem_kVA.txt

CIRCUIT ELEMENT POWER FLOW

(Power Flow into element from indicated Bus)

Power Delivery Elements

  Bus     Phase     kW     +j   kvar         kVA         PF

ELEMENT = "Vsource.SOURCE"
SOURCEBUS     1      -689.3 +j   -150.6      705.6       0.9770
SOURCEBUS     2      -625.3 +j    -71.9      629.4       0.9935
SOURCEBUS     3      -725.4 +j    -55.8      727.6       0.9971
   TERMINAL TOTAL . -2040.0 +j   -278.2     2058.9       0.9908
SOURCEBUS     0         0.0 +j      0.0        0.0       1.0000
SOURCEBUS     0         0.0 +j      0.0        0.0       1.0000
SOURCEBUS     0         0.0 +j      0.0        0.0       1.0000
   TERMINAL TOTAL .     0.0 +j      0.0        0.0       1.0000

ELEMENT = "Transformer.SUBXF"
SOURCEBUS     1       689.3 +j    150.6      705.6       0.9770
SOURCEBUS     2       625.3 +j     71.9      629.4       0.9935
SOURCEBUS     3       725.4 +j     55.8      727.6       0.9971
SOURCEBUS     0         0.0 +j      0.0        0.0       1.0000
   TERMINAL TOTAL .  2040.0 +j    278.2     2058.9       0.9908
800           1      -756.3 +j   -163.2      773.7       0.9775
800           2      -666.8 +j    -86.3      672.3       0.9917
800           3      -617.0 +j    -28.8      617.7       0.9989
800           0         0.0 +j      0.0        0.0       1.0000
   TERMINAL TOTAL . -2040.0 +j   -278.2     2058.9       0.9908

ELEMENT = "Line.L1"
800           1       756.3 +j    163.2      773.7       0.9775
800           2       666.8 +j     86.3      672.3       0.9917
800           3       617.0 +j     28.8      617.7       0.9989
   TERMINAL TOTAL .  2040.0 +j    278.2     2058.9       0.9908
802           1      -754.7 +j   -162.8      772.0       0.9775
802           2      -665.8 +j    -86.0      671.3       0.9918
802           3      -616.1 +j    -28.8      616.8       0.9989
   TERMINAL TOTAL . -2036.6 +j   -277.7     2055.4       0.9908

ELEMENT = "Line.L2A"
802           1       754.7 +j    162.8      772.0       0.9775
802           2       665.8 +j     86.0      671.3       0.9918
802           3       616.1 +j     28.8      616.8       0.9989
   TERMINAL TOTAL .  2036.6 +j    277.7     2055.4       0.9908
MID806        1      -754.1 +j   -162.7      771.5       0.9775
MID806        2      -665.5 +j    -86.0      671.0       0.9918
MID806        3      -615.9 +j    -28.8      616.5       0.9989
   TERMINAL TOTAL . -2035.4 +j   -277.5     2054.3       0.9908

ELEMENT = "Line.L2B"
MID806        1       754.1 +j    162.7      771.5       0.9775
MID806        2       635.5 +j     71.0      639.4       0.9938
MID806        3       590.9 +j     14.8      591.0       0.9997
   TERMINAL TOTAL .  1980.4 +j    248.5     1996.0       0.9922
806           1      -753.6 +j   -162.6      770.9       0.9775
806           2      -635.2 +j    -70.9      639.1       0.9938
806           3      -590.6 +j    -14.8      590.8       0.9997
   TERMINAL TOTAL . -1979.3 +j   -248.3     1994.8       0.9922

ELEMENT = "Line.L3"
806           1       753.6 +j    162.6      770.9       0.9775
806           2       635.2 +j     70.9      639.1       0.9938
806           3       590.6 +j     14.8      590.8       0.9997
   TERMINAL TOTAL .  1979.3 +j    248.3     1994.8       0.9922
808           1      -733.2 +j   -157.7      750.0       0.9776
808           2      -624.4 +j    -68.9      628.2       0.9940
808           3      -580.7 +j    -16.0      580.9       0.9996
   TERMINAL TOTAL . -1938.2 +j   -242.6     1953.4       0.9923

ELEMENT = "Line.L4A"
808           2        16.5 +j      6.6       17.8       0.9281
   TERMINAL TOTAL .    16.5 +j      6.6       17.8       0.9281
MID810        2       -16.5 +j     -7.4       18.1       0.9117
   TERMINAL TOTAL .   -16.5 +j     -7.4       18.1       0.9117

ELEMENT = "Line.L4B"
MID810        2         0.0 +j     -0.8        0.8      -0.0000
   TERMINAL TOTAL .     0.0 +j     -0.8        0.8      -0.0000
810           2        -0.0 +j     -0.0        0.0       0.8436
   TERMINAL TOTAL .    -0.0 +j     -0.0        0.0       0.8436

ELEMENT = "Line.L5"
808           1       733.2 +j    157.7      750.0       0.9776
808           2       607.9 +j     62.3      611.1       0.9948
808           3       580.7 +j     16.0      580.9       0.9996
   TERMINAL TOTAL .  1921.8 +j    236.0     1936.2       0.9925
812           1      -709.5 +j   -151.0      725.3       0.9781
812           2      -596.2 +j    -60.3      599.3       0.9949
812           3      -568.8 +j    -17.0      569.1       0.9996
   TERMINAL TOTAL . -1874.5 +j   -228.3     1888.4       0.9927

ELEMENT = "Line.L6"
812           1       709.5 +j    151.0      725.3       0.9781
812           2       596.2 +j     60.3      599.3       0.9949
812           3       568.8 +j     17.0      569.1       0.9996
   TERMINAL TOTAL .  1874.5 +j    228.3     1888.4       0.9927
814           1      -690.5 +j   -145.1      705.6       0.9786
814           2      -587.1 +j    -58.6      590.0       0.9951
814           3      -559.4 +j    -17.5      559.7       0.9995
   TERMINAL TOTAL . -1837.0 +j   -221.2     1850.3       0.9928

ELEMENT = "Line.L7"
814R          1       690.5 +j    145.1      705.6       0.9786
814R          2       587.1 +j     58.5      590.0       0.9951
814R          3       559.4 +j     17.5      559.7       0.9995
   TERMINAL TOTAL .  1837.0 +j    221.1     1850.2       0.9928
850           1      -690.5 +j   -145.1      705.6       0.9786
850           2      -587.1 +j    -58.5      590.0       0.9951
850           3      -559.4 +j    -17.5      559.7       0.9995
   TERMINAL TOTAL . -1837.0 +j   -221.1     1850.2       0.9928

ELEMENT = "Line.L24"
850           1       690.5 +j    145.1      705.6       0.9786
850           2       587.1 +j     58.5      590.0       0.9951
850           3       559.4 +j     17.5      559.7       0.9995
   TERMINAL TOTAL .  1837.0 +j    221.1     1850.2       0.9928
816           1      -690.3 +j   -145.0      705.3       0.9786
816           2      -586.9 +j    -58.5      589.8       0.9951
816           3      -559.3 +j    -17.5      559.5       0.9995
   TERMINAL TOTAL . -1836.4 +j   -221.0     1849.7       0.9928

ELEMENT = "Line.L8"
816           1       170.5 +j     71.1      184.8       0.9231
   TERMINAL TOTAL .   170.5 +j     71.1      184.8       0.9231
818           1      -170.5 +j    -71.5      184.9       0.9222
   TERMINAL TOTAL .  -170.5 +j    -71.5      184.9       0.9222

ELEMENT = "Line.L9A"
816           1       519.7 +j     74.0      524.9       0.9900
816           2       586.9 +j     58.5      589.8       0.9951
816           3       559.3 +j     17.5      559.5       0.9995
   TERMINAL TOTAL .  1665.9 +j    150.0     1672.6       0.9960
MID824        1      -517.5 +j    -74.4      522.9       0.9898
MID824        2      -584.2 +j    -58.3      587.1       0.9951
MID824        3      -557.0 +j    -17.4      557.3       0.9995
   TERMINAL TOTAL . -1658.8 +j   -150.1     1665.6       0.9959

ELEMENT = "Line.L9B"
MID824        1       517.5 +j     74.4      522.9       0.9898
MID824        2       581.1 +j     58.8      584.0       0.9949
MID824        3       555.1 +j     14.9      555.3       0.9996
   TERMINAL TOTAL .  1653.7 +j    148.1     1660.3       0.9960
824           1      -515.4 +j    -74.9      520.8       0.9896
824           2      -578.4 +j    -58.6      581.3       0.9949
824           3      -552.9 +j    -14.7      553.1       0.9996
   TERMINAL TOTAL . -1646.6 +j   -148.2     1653.3       0.9960

ELEMENT = "Line.L10A"
818           1       170.5 +j     71.5      184.9       0.9222
   TERMINAL TOTAL .   170.5 +j     71.5      184.9       0.9222
MID820        1      -170.3 +j    -77.6      187.2       0.9099
   TERMINAL TOTAL .  -170.3 +j    -77.6      187.2       0.9099

ELEMENT = "Line.L10B"
MID820        1       135.2 +j     60.1      147.9       0.9138
   TERMINAL TOTAL .   135.2 +j     60.1      147.9       0.9138
820           1      -135.0 +j    -66.3      150.5       0.8975
   TERMINAL TOTAL .  -135.0 +j    -66.3      150.5       0.8975

ELEMENT = "Line.L11A"
820           1       135.0 +j     66.3      150.5       0.8975
   TERMINAL TOTAL .   135.0 +j     66.3      150.5       0.8975
MID822        1      -135.0 +j    -68.1      151.2       0.8928
   TERMINAL TOTAL .  -135.0 +j    -68.1      151.2       0.8928

ELEMENT = "Line.L11B"
MID822        1         0.0 +j     -1.9        1.9      -0.0000
   TERMINAL TOTAL .     0.0 +j     -1.9        1.9      -0.0000
822           1         0.0 +j      0.0        0.0       0.0443
   TERMINAL TOTAL .     0.0 +j      0.0        0.0       0.0443

ELEMENT = "Line.L12A"
824           2        40.6 +j     19.5       45.1       0.9016
   TERMINAL TOTAL .    40.6 +j     19.5       45.1       0.9016
MID826        2       -40.6 +j    -19.9       45.3       0.8981
   TERMINAL TOTAL .   -40.6 +j    -19.9       45.3       0.8981

ELEMENT = "Line.L12B"
MID826        2         0.0 +j     -0.4        0.4      -0.0000
   TERMINAL TOTAL .     0.0 +j     -0.4        0.4      -0.0000
826           2         0.0 +j     -0.0        0.0      -0.2089
   TERMINAL TOTAL .     0.0 +j     -0.0        0.0      -0.2089

ELEMENT = "Line.L13A"
824           1       515.4 +j     74.9      520.8       0.9896
824           2       537.7 +j     39.1      539.1       0.9974
824           3       552.9 +j     14.7      553.1       0.9996
   TERMINAL TOTAL .  1606.0 +j    128.7     1611.2       0.9968
MID828        1      -515.2 +j    -74.9      520.6       0.9896
MID828        2      -537.5 +j    -39.1      539.0       0.9974
MID828        3      -552.7 +j    -14.7      552.9       0.9996
   TERMINAL TOTAL . -1605.5 +j   -128.7     1610.6       0.9968

ELEMENT = "Line.L13B"
MID828        1       515.2 +j     74.9      520.6       0.9896
MID828        2       537.5 +j     39.1      539.0       0.9974
MID828        3       548.7 +j     12.7      548.8       0.9997
   TERMINAL TOTAL .  1601.5 +j    126.7     1606.5       0.9969
828           1      -515.0 +j    -74.9      520.5       0.9896
828           2      -537.4 +j    -39.1      538.8       0.9974
828           3      -548.5 +j    -12.7      548.7       0.9997
   TERMINAL TOTAL . -1600.9 +j   -126.7     1605.9       0.9969

ELEMENT = "Line.L14A"
828           1       515.0 +j     74.9      520.5       0.9896
828           2       537.4 +j     39.1      538.8       0.9974
828           3       548.5 +j     12.7      548.7       0.9997
   TERMINAL TOTAL .  1600.9 +j    126.7     1605.9       0.9969
MID830        1      -510.7 +j    -75.6      516.3       0.9892
MID830        2      -532.8 +j    -39.1      534.2       0.9973
MID830        3      -544.0 +j    -12.5      544.2       0.9997
   TERMINAL TOTAL . -1587.6 +j   -127.2     1592.7       0.9968

ELEMENT = "Line.L14B"
MID830        1       503.7 +j     72.6      509.0       0.9898
MID830        2       532.8 +j     39.1      534.2       0.9973
MID830        3       544.0 +j     12.5      544.2       0.9997
   TERMINAL TOTAL .  1580.6 +j    124.2     1585.4       0.9969
830           1      -499.6 +j    -73.4      504.9       0.9894
830           2      -528.2 +j    -39.1      529.6       0.9973
830           3      -539.6 +j    -12.2      539.7       0.9997
   TERMINAL TOTAL . -1567.3 +j   -124.7     1572.3       0.9969

ELEMENT = "Line.L15"
830           1       483.8 +j     61.7      487.7       0.9920
830           2       518.2 +j     34.2      519.3       0.9978
830           3       521.0 +j      9.0      521.0       0.9998
   TERMINAL TOTAL .  1522.9 +j    104.9     1526.5       0.9976
854           1      -483.6 +j    -61.7      487.5       0.9919
854           2      -518.0 +j    -34.2      519.1       0.9978
854           3      -520.7 +j     -9.0      520.8       0.9999
   TERMINAL TOTAL . -1522.3 +j   -105.0     1525.9       0.9976

ELEMENT = "Line.L16A"
832           1       317.5 +j    -20.4      318.1      -0.9979
832           2       345.3 +j    -44.7      348.2      -0.9917
832           3       354.4 +j    -75.5      362.4      -0.9781
   TERMINAL TOTAL .  1017.2 +j   -140.6     1026.9      -0.9906
MID858        1      -317.1 +j     19.9      317.7      -0.9980
MID858        2      -344.8 +j     44.4      347.7      -0.9918
MID858        3      -354.0 +j     75.2      361.9      -0.9782
   TERMINAL TOTAL . -1016.0 +j    139.4     1025.5      -0.9907

ELEMENT = "Line.L16B"
MID858        1       310.1 +j    -22.8      311.0      -0.9973
MID858        2       340.6 +j    -48.0      343.9      -0.9902
MID858        3       349.1 +j    -76.0      357.3      -0.9771
   TERMINAL TOTAL .   999.9 +j   -146.9     1010.6      -0.9894
858           1      -309.8 +j     22.3      310.6      -0.9974
858           2      -340.1 +j     47.6      343.4      -0.9903
858           3      -348.7 +j     75.7      356.9      -0.9772
   TERMINAL TOTAL .  -998.7 +j    145.7     1009.2      -0.9895

ELEMENT = "Line.L29A"
858           1       307.8 +j    -22.8      308.7      -0.9973
858           2       340.1 +j    -47.6      343.4      -0.9903
858           3       348.7 +j    -75.7      356.9      -0.9772
   TERMINAL TOTAL .   996.7 +j   -146.2     1007.3      -0.9894
MID834        1      -307.5 +j     22.2      308.3      -0.9974
MID834        2      -339.5 +j     47.2      342.8      -0.9905
MID834        3      -348.3 +j     75.4      356.3      -0.9774
   TERMINAL TOTAL .  -995.2 +j    144.8     1005.7      -0.9896

ELEMENT = "Line.L29B"
MID834        1       300.4 +j    -29.4      301.9      -0.9952
MID834        2       328.2 +j    -48.9      331.9      -0.9891
MID834        3       334.5 +j    -83.4      344.8      -0.9703
   TERMINAL TOTAL .   963.2 +j   -161.8      976.7      -0.9862
834           1      -300.1 +j     28.8      301.5      -0.9954
834           2      -327.7 +j     48.5      331.2      -0.9892
834           3      -334.1 +j     83.1      344.3      -0.9705
   TERMINAL TOTAL .  -961.9 +j    160.3      975.1      -0.9864

ELEMENT = "Line.L18"
834           1       172.8 +j   -134.7      219.1      -0.7886
834           2       211.6 +j   -116.2      241.5      -0.8765
834           3       183.6 +j   -128.3      224.0      -0.8196
   TERMINAL TOTAL .   568.0 +j   -379.3      683.0      -0.8317
842           1      -172.8 +j    134.7      219.1      -0.7887
842           2      -211.6 +j    116.2      241.4      -0.8766
842           3      -183.6 +j    128.3      223.9      -0.8197
   TERMINAL TOTAL .  -568.0 +j    379.1      682.9      -0.8317

ELEMENT = "Line.L19A"
836           1        21.2 +j      6.4       22.2       0.9575
836           2        30.5 +j     16.0       34.5       0.8862
836           3        17.3 +j     19.3       25.9       0.6679
   TERMINAL TOTAL .    69.1 +j     41.6       80.6       0.8565
MID840        1       -21.2 +j     -6.5       22.2       0.9561
MID840        2       -30.5 +j    -16.1       34.5       0.8848
MID840        3       -17.3 +j    -19.4       25.9       0.6661
   TERMINAL TOTAL .   -69.1 +j    -41.9       80.8       0.8547

ELEMENT = "Line.L19B"
MID840        1         9.3 +j      7.1       11.7       0.7938
MID840        2         9.3 +j      7.1       11.7       0.7941
MID840        3         9.3 +j      7.1       11.7       0.7932
   TERMINAL TOTAL .    27.8 +j     21.3       35.1       0.7937
840           1        -9.3 +j     -7.2       11.8       0.7894
840           2        -9.3 +j     -7.2       11.7       0.7894
840           3        -9.3 +j     -7.2       11.7       0.7894
   TERMINAL TOTAL .   -27.8 +j    -21.6       35.2       0.7894

ELEMENT = "Line.L21A"
842           1       172.8 +j   -134.7      219.1      -0.7887
842           2       211.6 +j   -116.2      241.4      -0.8766
842           3       183.6 +j   -128.3      223.9      -0.8197
   TERMINAL TOTAL .   568.0 +j   -379.1      682.9      -0.8317
MID844        1      -172.7 +j    134.5      218.9      -0.7890
MID844        2      -211.5 +j    116.0      241.3      -0.8768
MID844        3      -183.5 +j    128.1      223.8      -0.8199
   TERMINAL TOTAL .  -567.8 +j    378.7      682.5      -0.8320

ELEMENT = "Line.L21B"
MID844        1       163.7 +j   -139.5      215.1      -0.7612
MID844        2       211.5 +j   -116.0      241.3      -0.8768
MID844        3       183.5 +j   -128.1      223.8      -0.8199
   TERMINAL TOTAL .   558.8 +j   -383.7      677.9      -0.8244
844           1      -163.7 +j    139.4      215.0      -0.7615
844           2      -211.5 +j    115.9      241.1      -0.8770
844           3      -183.5 +j    128.0      223.7      -0.8201
   TERMINAL TOTAL .  -558.7 +j    383.3      677.5      -0.8246

ELEMENT = "Line.L22A"
844           1        19.9 +j   -144.7      146.1      -0.1364
844           2        68.4 +j   -121.2      139.1      -0.4913
844           3        40.1 +j   -133.3      139.2      -0.2880
   TERMINAL TOTAL .   128.4 +j   -399.2      419.3      -0.3061
MID846        1       -19.9 +j    144.2      145.6      -0.1367
MID846        2       -68.2 +j    120.8      138.7      -0.4920
MID846        3       -40.1 +j    132.9      138.9      -0.2885
   TERMINAL TOTAL .  -128.2 +j    397.9      418.1      -0.3067

ELEMENT = "Line.L22B"
MID846        1        19.9 +j   -144.2      145.6      -0.1367
MID846        2        43.2 +j   -132.8      139.6      -0.3098
MID846        3        20.1 +j   -143.9      145.3      -0.1380
   TERMINAL TOTAL .    83.2 +j   -420.9      429.1      -0.1939
846           1       -19.9 +j    143.8      145.1      -0.1369
846           2       -43.1 +j    132.3      139.2      -0.3100
846           3       -20.0 +j    143.6      145.0      -0.1382
   TERMINAL TOTAL .   -83.0 +j    419.7      427.8      -0.1941

ELEMENT = "Line.L23A"
846           1        19.9 +j   -143.8      145.1      -0.1369
846           2        43.1 +j   -132.3      139.2      -0.3100
846           3        20.0 +j   -143.6      145.0      -0.1382
   TERMINAL TOTAL .    83.0 +j   -419.7      427.8      -0.1941
MID848        1       -19.9 +j    143.7      145.1      -0.1370
MID848        2       -43.1 +j    132.3      139.1      -0.3100
MID848        3       -20.0 +j    143.5      144.9      -0.1382
   TERMINAL TOTAL .   -83.0 +j    419.5      427.6      -0.1941

ELEMENT = "Line.L23B"
MID848        1        19.9 +j   -143.7      145.1      -0.1370
MID848        2        20.1 +j   -143.3      144.7      -0.1391
MID848        3        20.0 +j   -143.5      144.9      -0.1382
   TERMINAL TOTAL .    60.0 +j   -430.5      434.6      -0.1381
848           1       -19.9 +j    143.6      145.0      -0.1370
848           2       -20.1 +j    143.2      144.6      -0.1391
848           3       -20.0 +j    143.5      144.8      -0.1382
   TERMINAL TOTAL .   -60.0 +j    430.3      434.5      -0.1381

ELEMENT = "Line.L26A"
854           2         4.0 +j     -4.2        5.8      -0.6933
   TERMINAL TOTAL .     4.0 +j     -4.2        5.8      -0.6933
MID856        2        -4.0 +j      1.1        4.1      -0.9655
   TERMINAL TOTAL .    -4.0 +j      1.1        4.1      -0.9655

ELEMENT = "Line.L26B"
MID856        2         0.0 +j     -3.1        3.1      -0.0000
   TERMINAL TOTAL .     0.0 +j     -3.1        3.1      -0.0000
856           2         0.0 +j      0.0        0.0       0.7367
   TERMINAL TOTAL .     0.0 +j      0.0        0.0       0.7367

ELEMENT = "Line.L27"
854           1       483.6 +j     61.7      487.5       0.9919
854           2       514.0 +j     38.4      515.4       0.9972
854           3       520.7 +j      9.0      520.8       0.9999
   TERMINAL TOTAL .  1518.3 +j    109.1     1522.2       0.9974
852           1      -469.6 +j    -64.5      474.0       0.9907
852           2      -498.2 +j    -38.6      499.7       0.9970
852           3      -505.7 +j     -8.2      505.8       0.9999
   TERMINAL TOTAL . -1473.5 +j   -111.2     1477.7       0.9972

ELEMENT = "Line.L25"
852R          1       469.6 +j     64.4      474.0       0.9907
852R          2       498.2 +j     38.6      499.7       0.9970
852R          3       505.7 +j      8.2      505.8       0.9999
   TERMINAL TOTAL .  1473.5 +j    111.2     1477.7       0.9972
832           1      -469.6 +j    -64.4      474.0       0.9907
832           2      -498.2 +j    -38.6      499.7       0.9970
832           3      -505.7 +j     -8.2      505.8       0.9999
   TERMINAL TOTAL . -1473.5 +j   -111.2     1477.7       0.9972

ELEMENT = "Transformer.XFM1"
832           1       152.1 +j     84.8      174.2       0.8734
832           2       152.9 +j     83.3      174.1       0.8781
832           3       151.3 +j     83.6      172.8       0.8751
832           0         0.0 +j      0.0        0.0       1.0000
   TERMINAL TOTAL .   456.2 +j    251.7      521.1       0.8756
888           1      -148.9 +j    -77.9      168.0       0.8861
888           2      -149.6 +j    -76.4      168.0       0.8907
888           3      -148.1 +j    -76.8      166.8       0.8877
888           0         0.0 +j      0.0        0.0       1.0000
   TERMINAL TOTAL .  -446.6 +j   -231.1      502.9       0.8882

ELEMENT = "Line.L28A"
858           1         2.0 +j      0.5        2.1       0.9654
   TERMINAL TOTAL .     2.0 +j      0.5        2.1       0.9654
MID864        1        -2.0 +j     -0.8        2.1       0.9332
   TERMINAL TOTAL .    -2.0 +j     -0.8        2.1       0.9332

ELEMENT = "Line.L28B"
MID864        1         0.0 +j     -0.2        0.2      -0.0000
   TERMINAL TOTAL .     0.0 +j     -0.2        0.2      -0.0000
864           1         0.0 +j     -0.0        0.0      -0.9984
   TERMINAL TOTAL .     0.0 +j     -0.0        0.0      -0.9984

ELEMENT = "Line.L17A"
834           1       127.3 +j    106.0      165.6       0.7685
834           2       116.0 +j     67.7      134.4       0.8636
834           3       150.5 +j     45.3      157.2       0.9576
   TERMINAL TOTAL .   393.8 +j    219.0      450.6       0.8740
MID860        1      -127.3 +j   -106.2      165.8       0.7677
MID860        2      -116.0 +j    -68.0      134.4       0.8627
MID860        3      -150.5 +j    -45.5      157.2       0.9572
   TERMINAL TOTAL .  -393.7 +j   -219.7      450.9       0.8733

ELEMENT = "Line.L17B"
MID860        1        75.0 +j     43.7       86.8       0.8642
MID860        2        96.2 +j     59.7      113.2       0.8496
MID860        3        67.9 +j     39.0       78.3       0.8673
   TERMINAL TOTAL .   239.1 +j    142.4      278.3       0.8592
860           1       -75.0 +j    -44.0       87.0       0.8629
860           2       -96.1 +j    -59.9      113.3       0.8486
860           3       -67.9 +j    -39.2       78.4       0.8660
   TERMINAL TOTAL .  -239.1 +j   -143.1      278.7       0.8581

ELEMENT = "Line.L30A"
860           1        55.0 +j     28.0       61.7       0.8916
860           2        76.1 +j     43.9       87.9       0.8661
860           3        47.9 +j     23.2       53.2       0.9000
   TERMINAL TOTAL .   179.1 +j     95.1      202.8       0.8832
MID836        1       -55.1 +j    -28.3       61.9       0.8894
MID836        2       -76.1 +j    -44.3       88.0       0.8644
MID836        3       -47.9 +j    -23.5       53.4       0.8978
   TERMINAL TOTAL .  -179.1 +j    -96.1      203.2       0.8812

ELEMENT = "Line.L30B"
MID836        1        21.2 +j      6.0       22.0       0.9626
MID836        2        58.6 +j     28.2       65.0       0.9010
MID836        3        17.3 +j     18.9       25.6       0.6746
   TERMINAL TOTAL .    97.1 +j     53.1      110.6       0.8774
836           1       -21.2 +j     -6.3       22.2       0.9584
836           2       -58.6 +j    -28.5       65.1       0.8989
836           3       -17.3 +j    -19.2       25.8       0.6691
   TERMINAL TOTAL .   -97.1 +j    -54.1      111.1       0.8737

ELEMENT = "Line.L20"
836           1        -0.0 +j     -0.1        0.1       0.0645
836           2        28.0 +j     12.6       30.7       0.9123
836           3        -0.0 +j     -0.1        0.1       0.0554
   TERMINAL TOTAL .    28.0 +j     12.4       30.6       0.9140
862           1        -0.0 +j     -0.0        0.0       0.4981
862           2       -28.0 +j    -12.6       30.7       0.9115
862           3         0.0 +j      0.0        0.0       0.9954
   TERMINAL TOTAL .   -28.0 +j    -12.6       30.7       0.9115

ELEMENT = "Line.L31A"
862           2        28.0 +j     12.6       30.7       0.9115
   TERMINAL TOTAL .    28.0 +j     12.6       30.7       0.9115
MID838        2       -28.0 +j    -13.3       31.0       0.9030
   TERMINAL TOTAL .   -28.0 +j    -13.3       31.0       0.9030

ELEMENT = "Line.L31B"
MID838        2         0.0 +j     -0.7        0.7      -0.0000
   TERMINAL TOTAL .     0.0 +j     -0.7        0.7      -0.0000
838           2         0.0 +j     -0.0        0.0      -0.8251
   TERMINAL TOTAL .     0.0 +j     -0.0        0.0      -0.8251

ELEMENT = "Line.L32"
888           1       148.9 +j     77.9      168.0       0.8861
888           2       149.6 +j     76.4      168.0       0.8907
888           3       148.1 +j     76.8      166.8       0.8877
   TERMINAL TOTAL .   446.6 +j    231.1      502.9       0.8882
890           1      -137.3 +j    -70.2      154.2       0.8903
890           2      -139.7 +j    -68.2      155.5       0.8987
890           3      -136.9 +j    -68.6      153.1       0.8942
   TERMINAL TOTAL .  -413.9 +j   -206.9      462.7       0.8944

ELEMENT = "Capacitor.C844"
844           1        -0.0 +j   -106.5      106.5       0.0000
844           2         0.0 +j   -106.0      106.0       1.0000
844           3         0.0 +j   -106.2      106.2       1.0000
   TERMINAL TOTAL .    -0.0 +j   -318.7      318.7       0.0000
844           0         0.0 +j      0.0        0.0       1.0000
844           0         0.0 +j      0.0        0.0       1.0000
844           0         0.0 +j      0.0        0.0       1.0000
   TERMINAL TOTAL .     0.0 +j      0.0        0.0       1.0000

ELEMENT = "Capacitor.C848"
848           1         0.0 +j   -159.9      159.9       1.0000
848           2         0.0 +j   -159.0      159.0       1.0000
848           3        -0.0 +j   -159.4      159.4       0.0000
   TERMINAL TOTAL .    -0.0 +j   -478.3      478.3       0.0000
848           0         0.0 +j      0.0        0.0       1.0000
848           0         0.0 +j      0.0        0.0       1.0000
848           0         0.0 +j      0.0        0.0       1.0000
   TERMINAL TOTAL .     0.0 +j      0.0        0.0       1.0000

ELEMENT = "Transformer.REG1A"
814           1       690.5 +j    145.1      705.6       0.9786
814           0         0.0 +j      0.0        0.0       1.0000
   TERMINAL TOTAL .   690.5 +j    145.1      705.6       0.9786
814R          1      -690.5 +j   -145.1      705.6       0.9786
814R          0         0.0 +j      0.0        0.0       1.0000
   TERMINAL TOTAL .  -690.5 +j   -145.1      705.6       0.9786

ELEMENT = "Transformer.REG1B"
814           2       587.1 +j     58.6      590.0       0.9951
814           0         0.0 +j      0.0        0.0       1.0000
   TERMINAL TOTAL .   587.1 +j     58.6      590.0       0.9951
814R          2      -587.1 +j    -58.5      590.0       0.9951
814R          0         0.0 +j      0.0        0.0       1.0000
   TERMINAL TOTAL .  -587.1 +j    -58.5      590.0       0.9951

ELEMENT = "Transformer.REG1C"
814           3       559.4 +j     17.5      559.7       0.9995
814           0         0.0 +j      0.0        0.0       1.0000
   TERMINAL TOTAL .   559.4 +j     17.5      559.7       0.9995
814R          3      -559.4 +j    -17.5      559.7       0.9995
814R          0         0.0 +j      0.0        0.0       1.0000
   TERMINAL TOTAL .  -559.4 +j    -17.5      559.7       0.9995

ELEMENT = "Transformer.REG2A"
852           1       469.6 +j     64.5      474.0       0.9907
852           0         0.0 +j      0.0        0.0       1.0000
   TERMINAL TOTAL .   469.6 +j     64.5      474.0       0.9907
852R          1      -469.6 +j    -64.4      474.0       0.9907
852R          0         0.0 +j      0.0        0.0       1.0000
   TERMINAL TOTAL .  -469.6 +j    -64.4      474.0       0.9907

ELEMENT = "Transformer.REG2B"
852           2       498.2 +j     38.6      499.7       0.9970
852           0         0.0 +j      0.0        0.0       1.0000
   TERMINAL TOTAL .   498.2 +j     38.6      499.7       0.9970
852R          2      -498.2 +j    -38.6      499.7       0.9970
852R          0         0.0 +j      0.0        0.0       1.0000
   TERMINAL TOTAL .  -498.2 +j    -38.6      499.7       0.9970

ELEMENT = "Transformer.REG2C"
852           3       505.7 +j      8.2      505.8       0.9999
852           0         0.0 +j      0.0        0.0       1.0000
   TERMINAL TOTAL .   505.7 +j      8.2      505.8       0.9999
852R          3      -505.7 +j     -8.2      505.8       0.9999
852R          0         0.0 +j      0.0        0.0       1.0000
   TERMINAL TOTAL .  -505.7 +j     -8.2      505.8       0.9999

= = = = = = = = = = = = = = = = = = =  = = = = = = = = = = =  = =

Power Conversion Elements

  Bus     Phase     kW   +j  kvar         kVA         PF

ELEMENT = "Load.S860"
860           1      20.0 +j   16.0       25.6       0.7809
860           2      20.0 +j   16.0       25.6       0.7809
860           3      20.0 +j   16.0       25.6       0.7809
860           0       0.0 +j    0.0        0.0       1.0000
  TERMINAL TOTAL  .    60.0 +j     48.0       76.8       0.7809

ELEMENT = "Load.S840"
840           1       9.3 +j    7.2       11.8       0.7894
840           2       9.3 +j    7.2       11.7       0.7894
840           3       9.3 +j    7.2       11.7       0.7894
840           0       0.0 +j    0.0        0.0       1.0000
  TERMINAL TOTAL  .    27.8 +j     21.6       35.2       0.7894

ELEMENT = "Load.S844"
844           1     143.8 +j  111.8      182.2       0.7894
844           2     143.1 +j  111.3      181.3       0.7894
844           3     143.4 +j  111.5      181.7       0.7894
844           0       0.0 +j    0.0        0.0       1.0000
  TERMINAL TOTAL  .   430.3 +j    334.7      545.1       0.7894

ELEMENT = "Load.S848"
848           1      19.9 +j   16.2       25.6       0.7746
848           2      20.1 +j   15.8       25.6       0.7864
848           3      20.0 +j   16.0       25.6       0.7816
  TERMINAL TOTAL  .    60.0 +j     48.0       76.8       0.7809

ELEMENT = "Load.S830A"
830           1       6.4 +j   -0.4        6.4      -0.9984
830           2       3.6 +j    5.3        6.4       0.5579
  TERMINAL TOTAL  .    10.0 +j      5.0       11.1       0.8944

ELEMENT = "Load.S830B"
830           2       6.4 +j   -0.4        6.4      -0.9980
830           3       3.5 +j    5.3        6.4       0.5453
  TERMINAL TOTAL  .     9.9 +j      4.9       11.0       0.8944

ELEMENT = "Load.S830C"
830           3      15.2 +j   -2.2       15.3      -0.9898
830           1       9.4 +j   12.0       15.3       0.6172
  TERMINAL TOTAL  .    24.6 +j      9.8       26.5       0.9285

ELEMENT = "Load.S890"
890           1     137.3 +j   70.2      154.2       0.8903
890           2     139.7 +j   68.2      155.5       0.8987
890           3     136.9 +j   68.6      153.1       0.8942
  TERMINAL TOTAL  .   413.9 +j    206.9      462.7       0.8944

ELEMENT = "Load.D802_806B"
MID806        2      30.0 +j   15.0       33.5       0.8944
MID806        0       0.0 +j    0.0        0.0       1.0000
  TERMINAL TOTAL  .    30.0 +j     15.0       33.5       0.8944

ELEMENT = "Load.D802_806C"
MID806        3      25.0 +j   14.0       28.7       0.8725
MID806        0       0.0 +j    0.0        0.0       1.0000
  TERMINAL TOTAL  .    25.0 +j     14.0       28.7       0.8725

ELEMENT = "Load.D808_810B"
MID810        2      16.5 +j    8.2       18.4       0.8944
MID810        0       0.0 +j    0.0        0.0       1.0000
  TERMINAL TOTAL  .    16.5 +j      8.2       18.4       0.8944

ELEMENT = "Load.D818_820A"
MID820        1      35.1 +j   17.6       39.3       0.8944
MID820        0       0.0 +j    0.0        0.0       1.0000
  TERMINAL TOTAL  .    35.1 +j     17.6       39.3       0.8944

ELEMENT = "Load.D820_822A"
MID822        1     135.0 +j   70.0      152.1       0.8878
MID822        0       0.0 +j    0.0        0.0       1.0000
  TERMINAL TOTAL  .   135.0 +j     70.0      152.1       0.8878

ELEMENT = "Load.D816_824B"
MID824        2       3.1 +j   -0.5        3.2      -0.9891
MID824        3       1.9 +j    2.5        3.2       0.6125
  TERMINAL TOTAL  .     5.1 +j      2.0        5.5       0.9285

ELEMENT = "Load.D824_826B"
MID826        2      40.6 +j   20.3       45.4       0.8944
MID826        0       0.0 +j    0.0        0.0       1.0000
  TERMINAL TOTAL  .    40.6 +j     20.3       45.4       0.8944

ELEMENT = "Load.D824_828C"
MID828        3       4.0 +j    2.0        4.5       0.8944
MID828        0       0.0 +j    0.0        0.0       1.0000
  TERMINAL TOTAL  .     4.0 +j      2.0        4.5       0.8944

ELEMENT = "Load.D828_830A"
MID830        1       7.0 +j    3.0        7.6       0.9191
MID830        0       0.0 +j    0.0        0.0       1.0000
  TERMINAL TOTAL  .     7.0 +j      3.0        7.6       0.9191

ELEMENT = "Load.D854_856B"
MID856        2       4.0 +j    2.0        4.5       0.8944
MID856        0       0.0 +j    0.0        0.0       1.0000
  TERMINAL TOTAL  .     4.0 +j      2.0        4.5       0.8944

ELEMENT = "Load.D832_858A"
MID858        1       4.7 +j   -0.5        4.7      -0.9940
MID858        2       2.9 +j    3.8        4.7       0.6056
  TERMINAL TOTAL  .     7.6 +j      3.2        8.2       0.9191

ELEMENT = "Load.D832_858B"
MID858        2       1.4 +j   -0.1        1.4      -0.9979
MID858        3       0.8 +j    1.2        1.4       0.5477
  TERMINAL TOTAL  .     2.1 +j      1.1        2.4       0.8944

ELEMENT = "Load.D832_858C"
MID858        3       4.1 +j   -0.3        4.1      -0.9979
MID858        1       2.3 +j    3.5        4.1       0.5474
  TERMINAL TOTAL  .     6.4 +j      3.2        7.2       0.8944

ELEMENT = "Load.D858_864A"
MID864        1       2.0 +j    1.0        2.2       0.8944
MID864        0       0.0 +j    0.0        0.0       1.0000
  TERMINAL TOTAL  .     2.0 +j      1.0        2.2       0.8944

ELEMENT = "Load.D858_834A"
MID834        1       2.6 +j   -0.1        2.6      -0.9987
MID834        2       1.4 +j    2.1        2.6       0.5581
  TERMINAL TOTAL  .     4.0 +j      2.0        4.5       0.8944

ELEMENT = "Load.D858_834B"
MID834        2       9.8 +j   -0.4        9.8      -0.9993
MID834        3       5.2 +j    8.4        9.8       0.5256
  TERMINAL TOTAL  .    15.0 +j      8.0       17.0       0.8824

ELEMENT = "Load.D858_834C"
MID834        3       8.5 +j   -0.3        8.5      -0.9994
MID834        1       4.5 +j    7.3        8.6       0.5214
  TERMINAL TOTAL  .    13.0 +j      7.0       14.8       0.8805

ELEMENT = "Load.D834_860A"
MID860        1      11.0 +j   -0.6       11.0      -0.9988
MID860        2       6.2 +j    9.1       11.0       0.5583
  TERMINAL TOTAL  .    17.2 +j      8.6       19.2       0.8944

ELEMENT = "Load.D834_860B"
MID860        2      13.6 +j   -0.9       13.7      -0.9979
MID860        3       7.5 +j   11.4       13.7       0.5480
  TERMINAL TOTAL  .    21.1 +j     10.6       23.6       0.8944

ELEMENT = "Load.D834_860C"
MID860        3      75.1 +j   -5.0       75.2      -0.9978
MID860        1      41.2 +j   63.1       75.3       0.5467
  TERMINAL TOTAL  .   116.3 +j     58.1      130.0       0.8944

ELEMENT = "Load.D860_836A"
MID836        1      19.3 +j   -1.0       19.3      -0.9988
MID836        2      10.7 +j   16.0       19.2       0.5583
  TERMINAL TOTAL  .    30.0 +j     15.0       33.5       0.8944

ELEMENT = "Load.D860_836B"
MID836        2       6.7 +j    0.1        6.7       0.9999
MID836        3       3.3 +j    5.9        6.8       0.4822
  TERMINAL TOTAL  .    10.0 +j      6.0       11.7       0.8575

ELEMENT = "Load.D860_836C"
MID836        3      27.4 +j   -1.3       27.4      -0.9989
MID836        1      14.6 +j   23.3       27.5       0.5308
  TERMINAL TOTAL  .    42.0 +j     22.0       47.4       0.8858

ELEMENT = "Load.D836_840A"
MID840        1      12.0 +j   -0.6       12.0      -0.9988
MID840        2       6.7 +j    9.9       12.0       0.5583
  TERMINAL TOTAL  .    18.6 +j      9.3       20.8       0.8944

ELEMENT = "Load.D836_840B"
MID840        2      14.6 +j   -0.9       14.6      -0.9979
MID840        3       8.0 +j   12.2       14.6       0.5480
  TERMINAL TOTAL  .    22.6 +j     11.3       25.3       0.8944

ELEMENT = "Load.D862_838B"
MID838        2      28.0 +j   14.0       31.3       0.8944
MID838        0       0.0 +j    0.0        0.0       1.0000
  TERMINAL TOTAL  .    28.0 +j     14.0       31.3       0.8944

ELEMENT = "Load.D842_844A"
MID844        1       9.0 +j    5.0       10.3       0.8742
MID844        0       0.0 +j    0.0        0.0       1.0000
  TERMINAL TOTAL  .     9.0 +j      5.0       10.3       0.8742

ELEMENT = "Load.D844_846B"
MID846        2      25.0 +j   12.0       27.7       0.9015
MID846        0       0.0 +j    0.0        0.0       1.0000
  TERMINAL TOTAL  .    25.0 +j     12.0       27.7       0.9015

ELEMENT = "Load.D844_846C"
MID846        3      20.0 +j   11.0       22.8       0.8762
MID846        0       0.0 +j    0.0        0.0       1.0000
  TERMINAL TOTAL  .    20.0 +j     11.0       22.8       0.8762

ELEMENT = "Load.D846_848B"
MID848        2      23.0 +j   11.0       25.5       0.9021
MID848        0       0.0 +j    0.0        0.0       1.0000
  TERMINAL TOTAL  .    23.0 +j     11.0       25.5       0.9021


Total Circuit Losses =  268.4 +j   22.7
